1

   Abaqus 3DEXPERIENCE R2018x                                  Date 27-Nov-2020   Time 18:20:11
   For use by Supplied by Team-SolidSQUAD under license from Dassault Systemes or its subsidiary.

                                                                                 
                                                                                 
 STEP    1     INCREMENT     1     STEP TIME    0.00    


                        S T E P       1     S T A T I C   A N A L Y S I S


                                                                                          

     AUTOMATIC TIME CONTROL WITH -
          A SUGGESTED INITIAL TIME INCREMENT OF                1.000E-02
          AND A TOTAL TIME PERIOD OF                            1.00    
          THE MINIMUM TIME INCREMENT ALLOWED IS                1.000E-05
          THE MAXIMUM TIME INCREMENT ALLOWED IS                0.100    

     LINEAR EQUATION SOLVER TYPE         DIRECT SPARSE

 CONVERGENCE TOLERANCE PARAMETERS FOR FORCE    
     CRITERION FOR RESIDUAL FORCE     FOR A NONLINEAR PROBLEM          5.000E-03
     CRITERION FOR DISP.    CORRECTION IN A NONLINEAR PROBLEM          1.000E-02
     INITIAL VALUE OF TIME AVERAGE FORCE                               1.000E-02
     AVERAGE FORCE     IS TIME AVERAGE FORCE    
     ALTERNATE CRIT. FOR RESIDUAL FORCE     FOR A NONLINEAR PROBLEM    2.000E-02
     CRITERION FOR ZERO FORCE     RELATIVE TO TIME AVRG. FORCE         1.000E-05
     CRITERION FOR RESIDUAL FORCE     WHEN THERE IS ZERO FLUX          1.000E-05
     CRITERION FOR DISP.    CORRECTION WHEN THERE IS ZERO FLUX         1.000E-03
     CRITERION FOR RESIDUAL FORCE     FOR A LINEAR INCREMENT           1.000E-08
     FIELD CONVERSION RATIO                                             1.00    
     CRITERION FOR ZERO FORCE     REL. TO TIME AVRG. MAX. FORCE        1.000E-05
     CRITERION FOR ZERO DISP.    RELATIVE TO CHARACTERISTIC LENGTH     1.000E-08

     VOLUMETRIC STRAIN COMPATIBILITY TOLERANCE FOR HYBRID SOLIDS       1.000E-05
     AXIAL STRAIN COMPATIBILITY TOLERANCE FOR HYBRID BEAMS             1.000E-05
     TRANS. SHEAR STRAIN COMPATIBILITY TOLERANCE FOR HYBRID BEAMS      1.000E-05
     SOFT CONTACT CONSTRAINT COMPATIBILITY TOLERANCE FOR P>P0          5.000E-03
     SOFT CONTACT CONSTRAINT COMPATIBILITY TOLERANCE FOR P=0.0         0.100    
     CONTACT FORCE ERROR TOLERANCE FOR CONVERT SDI=YES                 1.00    
     DISPLACEMENT COMPATIBILITY TOLERANCE FOR DCOUP ELEMENTS           1.000E-05
     ROTATION COMPATIBILITY TOLERANCE FOR DCOUP ELEMENTS               1.000E-05

 EQUILIBRIUM WILL BE CHECKED FOR SEVERE DISCONTINUITY ITERATIONS

 TIME INCREMENTATION CONTROL PARAMETERS:
     FIRST EQUILIBRIUM ITERATION FOR CONSECUTIVE DIVERGENCE CHECK              4
     EQUILIBRIUM ITERATION AT WHICH LOG. CONVERGENCE RATE CHECK BEGINS         8
     EQUILIBRIUM ITERATION AFTER WHICH ALTERNATE RESIDUAL IS USED              9
     MAXIMUM EQUILIBRIUM ITERATIONS ALLOWED                                   16
     EQUILIBRIUM ITERATION COUNT FOR CUT-BACK IN NEXT INCREMENT               10
     MAXIMUM EQUILIB. ITERS IN TWO INCREMENTS FOR TIME INCREMENT INCREASE      4
     MAXIMUM ITERATIONS FOR SEVERE DISCONTINUITIES                            50
     MAXIMUM ATTEMPTS ALLOWED IN AN INCREMENT                                  5
     MAXIMUM DISCON. ITERS IN TWO INCREMENTS FOR TIME INCREMENT INCREASE      50
     MAXIMUM CONTACT AUGMENTATIONS FOR *SURFACE BEHAVIOR,AUGMENTED LAGRANGE   50
     CUT-BACK FACTOR AFTER DIVERGENCE                                 0.2500    
     CUT-BACK FACTOR FOR TOO SLOW CONVERGENCE                         0.5000    
     CUT-BACK FACTOR AFTER TOO MANY EQUILIBRIUM ITERATIONS            0.7500    
     CUT-BACK FACTOR AFTER TOO MANY SEVERE DISCONTINUITY ITERATIONS   0.2500    
     CUT-BACK FACTOR AFTER PROBLEMS IN ELEMENT ASSEMBLY               0.2500    
     INCREASE FACTOR AFTER TWO INCREMENTS THAT CONVERGE QUICKLY        1.500    
     MAX. TIME INCREMENT INCREASE FACTOR ALLOWED                       1.500    
     MAX. TIME INCREMENT INCREASE FACTOR ALLOWED (DYNAMICS)            1.250    
     MAX. TIME INCREMENT INCREASE FACTOR ALLOWED (DIFFUSION)           2.000    
     MINIMUM TIME INCREMENT RATIO FOR EXTRAPOLATION TO OCCUR          0.1000    
     MAX. RATIO OF TIME INCREMENT TO STABILITY LIMIT                   1.000    
     FRACTION OF STABILITY LIMIT FOR NEW TIME INCREMENT               0.9500    
     TIME INCREMENT INCREASE FACTOR BEFORE A TIME POINT                1.000    
     GLOBAL STABILIZATION CONTROL IS NOT USED

          PRINT OF INCREMENT NUMBER, TIME, ETC., EVERY    1  INCREMENTS

     THE MAXIMUM NUMBER OF INCREMENTS IN THIS STEP IS                     200

          LARGE DISPLACEMENT THEORY WILL BE USED

     LINEAR EXTRAPOLATION WILL BE USED

     CHARACTERISTIC ELEMENT LENGTH      1.00    

     DETAILS REGARDING ACTUAL SOLUTION WAVEFRONT REQUESTED

     DETAILED OUTPUT OF DIAGNOSTICS TO DATABASE REQUESTED

     PRINT OF INCREMENT NUMBER, TIME, ETC., TO THE MESSAGE FILE EVERY     1  INCREMENTS

     COLLECTING MODEL CONSTRAINT INFORMATION FOR OVERCONSTRAINT CHECKS

     COLLECTING STEP CONSTRAINT INFORMATION FOR OVERCONSTRAINT CHECKS


  INCREMENT     1 STARTS. ATTEMPT NUMBER  1, TIME INCREMENT  1.000E-02

  NUMBER OF EQUATIONS =        24     NUMBER OF RHS =    1
  NUMBER OF FLOATING PT. OPERATIONS =  4.90E+03

     CHECK POINT   START OF SOLVER    

     CHECK POINT  END OF SOLVER       

       ELAPSED USER TIME (SEC)      =  1.00000E-02
       ELAPSED SYSTEM TIME (SEC)    =   0.0000    
       ELAPSED TOTAL CPU TIME (SEC) =  1.00000E-02
       ELAPSED WALLCLOCK TIME (SEC) =          0

               CONVERGENCE CHECKS FOR EQUILIBRIUM ITERATION     1


 AVERAGE FORCE                      7.737E-03   TIME AVG. FORCE       7.737E-03
 LARGEST RESIDUAL FORCE            -6.749E-03   AT NODE          4   DOF  3
 LARGEST INCREMENT OF DISP.         6.000E-03   AT NODE          1   DOF  2
 LARGEST CORRECTION TO DISP.        6.000E-03   AT NODE          1   DOF  2
          FORCE     EQUILIBRIUM NOT ACHIEVED WITHIN TOLERANCE.

  NUMBER OF EQUATIONS =        24     NUMBER OF RHS =    1
  NUMBER OF FLOATING PT. OPERATIONS =  4.90E+03

     CHECK POINT   START OF SOLVER    

     CHECK POINT  END OF SOLVER       

       ELAPSED USER TIME (SEC)      =   0.0000    
       ELAPSED SYSTEM TIME (SEC)    =   0.0000    
       ELAPSED TOTAL CPU TIME (SEC) =   0.0000    
       ELAPSED WALLCLOCK TIME (SEC) =          0

               CONVERGENCE CHECKS FOR EQUILIBRIUM ITERATION     2


 AVERAGE FORCE                      5.459E-03   TIME AVG. FORCE       5.459E-03
 LARGEST RESIDUAL FORCE             2.230E-08   AT NODE          2   DOF  1
 LARGEST INCREMENT OF DISP.         6.000E-03   AT NODE          1   DOF  2
 LARGEST CORRECTION TO DISP.       -1.340E-05   AT NODE          4   DOF  3
          THE FORCE     EQUILIBRIUM EQUATIONS HAVE CONVERGED

 ITERATION SUMMARY FOR THE INCREMENT:   2 TOTAL ITERATIONS, OF WHICH
   0 ARE SEVERE DISCONTINUITY ITERATIONS AND  2 ARE EQUILIBRIUM ITERATIONS.

 TIME INCREMENT COMPLETED  1.000E-02,  FRACTION OF STEP COMPLETED  1.000E-02
 STEP TIME COMPLETED       1.000E-02,  TOTAL TIME COMPLETED        1.000E-02


  INCREMENT     2 STARTS. ATTEMPT NUMBER  1, TIME INCREMENT  1.000E-02

  NUMBER OF EQUATIONS =        24     NUMBER OF RHS =    1
  NUMBER OF FLOATING PT. OPERATIONS =  4.90E+03

     CHECK POINT   START OF SOLVER    

     CHECK POINT  END OF SOLVER       

       ELAPSED USER TIME (SEC)      =  1.00000E-02
       ELAPSED SYSTEM TIME (SEC)    =   0.0000    
       ELAPSED TOTAL CPU TIME (SEC) =  1.00000E-02
       ELAPSED WALLCLOCK TIME (SEC) =          0

               CONVERGENCE CHECKS FOR EQUILIBRIUM ITERATION     1


 AVERAGE FORCE                      1.084E-02   TIME AVG. FORCE       8.151E-03
 LARGEST RESIDUAL FORCE             2.687E-07   AT NODE          8   DOF  3
 LARGEST INCREMENT OF DISP.         6.000E-03   AT NODE          1   DOF  2
 LARGEST CORRECTION TO DISP.       -2.651E-05   AT NODE          7   DOF  3
          THE FORCE     EQUILIBRIUM EQUATIONS HAVE CONVERGED
          TIME INCREMENT MAY NOW INCREASE TO    1.500E-02

 ITERATION SUMMARY FOR THE INCREMENT:   1 TOTAL ITERATIONS, OF WHICH
   0 ARE SEVERE DISCONTINUITY ITERATIONS AND  1 ARE EQUILIBRIUM ITERATIONS.

 TIME INCREMENT COMPLETED  1.000E-02,  FRACTION OF STEP COMPLETED  2.000E-02
 STEP TIME COMPLETED       2.000E-02,  TOTAL TIME COMPLETED        2.000E-02


  INCREMENT     3 STARTS. ATTEMPT NUMBER  1, TIME INCREMENT  1.500E-02

  NUMBER OF EQUATIONS =        24     NUMBER OF RHS =    1
  NUMBER OF FLOATING PT. OPERATIONS =  4.90E+03

     CHECK POINT   START OF SOLVER    

     CHECK POINT  END OF SOLVER       

       ELAPSED USER TIME (SEC)      =   0.0000    
       ELAPSED SYSTEM TIME (SEC)    =   0.0000    
       ELAPSED TOTAL CPU TIME (SEC) =   0.0000    
       ELAPSED WALLCLOCK TIME (SEC) =          0

               CONVERGENCE CHECKS FOR EQUILIBRIUM ITERATION     1


 AVERAGE FORCE                      1.878E-02   TIME AVG. FORCE       1.169E-02
 LARGEST RESIDUAL FORCE             9.781E-07   AT NODE          4   DOF  3
 LARGEST INCREMENT OF DISP.         9.000E-03   AT NODE          1   DOF  2
 LARGEST CORRECTION TO DISP.        4.887E-05   AT NODE          4   DOF  1
          THE FORCE     EQUILIBRIUM EQUATIONS HAVE CONVERGED
          TIME INCREMENT MAY NOW INCREASE TO    2.250E-02

 ITERATION SUMMARY FOR THE INCREMENT:   1 TOTAL ITERATIONS, OF WHICH
   0 ARE SEVERE DISCONTINUITY ITERATIONS AND  1 ARE EQUILIBRIUM ITERATIONS.

 TIME INCREMENT COMPLETED  1.500E-02,  FRACTION OF STEP COMPLETED  3.500E-02
 STEP TIME COMPLETED       3.500E-02,  TOTAL TIME COMPLETED        3.500E-02


  INCREMENT     4 STARTS. ATTEMPT NUMBER  1, TIME INCREMENT  2.250E-02

  NUMBER OF EQUATIONS =        24     NUMBER OF RHS =    1
  NUMBER OF FLOATING PT. OPERATIONS =  4.90E+03

     CHECK POINT   START OF SOLVER    

     CHECK POINT  END OF SOLVER       

       ELAPSED USER TIME (SEC)      =   0.0000    
       ELAPSED SYSTEM TIME (SEC)    =  1.00000E-02
       ELAPSED TOTAL CPU TIME (SEC) =  1.00000E-02
       ELAPSED WALLCLOCK TIME (SEC) =          0

               CONVERGENCE CHECKS FOR EQUILIBRIUM ITERATION     1


 AVERAGE FORCE                      3.040E-02   TIME AVG. FORCE       1.637E-02
 LARGEST RESIDUAL FORCE             5.934E-06   AT NODE          4   DOF  3
 LARGEST INCREMENT OF DISP.         1.350E-02   AT NODE          1   DOF  2
 LARGEST CORRECTION TO DISP.       -1.074E-04   AT NODE          3   DOF  3
          THE FORCE     EQUILIBRIUM EQUATIONS HAVE CONVERGED
          TIME INCREMENT MAY NOW INCREASE TO    3.375E-02

 ITERATION SUMMARY FOR THE INCREMENT:   1 TOTAL ITERATIONS, OF WHICH
   0 ARE SEVERE DISCONTINUITY ITERATIONS AND  1 ARE EQUILIBRIUM ITERATIONS.

 TIME INCREMENT COMPLETED  2.250E-02,  FRACTION OF STEP COMPLETED  5.750E-02
 STEP TIME COMPLETED       5.750E-02,  TOTAL TIME COMPLETED        5.750E-02


  INCREMENT     5 STARTS. ATTEMPT NUMBER  1, TIME INCREMENT  3.375E-02

  NUMBER OF EQUATIONS =        24     NUMBER OF RHS =    1
  NUMBER OF FLOATING PT. OPERATIONS =  4.90E+03

     CHECK POINT   START OF SOLVER    

     CHECK POINT  END OF SOLVER       

       ELAPSED USER TIME (SEC)      =  1.00000E-02
       ELAPSED SYSTEM TIME (SEC)    =   0.0000    
       ELAPSED TOTAL CPU TIME (SEC) =  1.00000E-02
       ELAPSED WALLCLOCK TIME (SEC) =          0

               CONVERGENCE CHECKS FOR EQUILIBRIUM ITERATION     1


 AVERAGE FORCE                      4.721E-02   TIME AVG. FORCE       2.254E-02
 LARGEST RESIDUAL FORCE             3.319E-05   AT NODE          4   DOF  3
 LARGEST INCREMENT OF DISP.         2.025E-02   AT NODE          1   DOF  2
 LARGEST CORRECTION TO DISP.       -2.335E-04   AT NODE          7   DOF  3
 ESTIMATE OF DISP.    CORRECTION    6.287E-08
 FORCE     EQUILIB. ACCEPTED BASED ON SMALL RESIDUAL AND ESTIMATED CORRECTION
          TIME INCREMENT MAY NOW INCREASE TO    5.063E-02

 ITERATION SUMMARY FOR THE INCREMENT:   1 TOTAL ITERATIONS, OF WHICH
   0 ARE SEVERE DISCONTINUITY ITERATIONS AND  1 ARE EQUILIBRIUM ITERATIONS.

 TIME INCREMENT COMPLETED  3.375E-02,  FRACTION OF STEP COMPLETED  9.125E-02
 STEP TIME COMPLETED       9.125E-02,  TOTAL TIME COMPLETED        9.125E-02


  INCREMENT     6 STARTS. ATTEMPT NUMBER  1, TIME INCREMENT  5.063E-02

  NUMBER OF EQUATIONS =        24     NUMBER OF RHS =    1
  NUMBER OF FLOATING PT. OPERATIONS =  4.90E+03

     CHECK POINT   START OF SOLVER    

     CHECK POINT  END OF SOLVER       

       ELAPSED USER TIME (SEC)      =   0.0000    
       ELAPSED SYSTEM TIME (SEC)    =   0.0000    
       ELAPSED TOTAL CPU TIME (SEC) =   0.0000    
       ELAPSED WALLCLOCK TIME (SEC) =          0

               CONVERGENCE CHECKS FOR EQUILIBRIUM ITERATION     1


 AVERAGE FORCE                      7.118E-02   TIME AVG. FORCE       3.065E-02
 LARGEST RESIDUAL FORCE            -1.737E-04   AT NODE          3   DOF  1
 LARGEST INCREMENT OF DISP.         3.037E-02   AT NODE          1   DOF  2
 LARGEST CORRECTION TO DISP.        4.996E-04   AT NODE          3   DOF  1
          FORCE     EQUILIBRIUM NOT ACHIEVED WITHIN TOLERANCE.

  NUMBER OF EQUATIONS =        24     NUMBER OF RHS =    1
  NUMBER OF FLOATING PT. OPERATIONS =  4.90E+03

     CHECK POINT   START OF SOLVER    

     CHECK POINT  END OF SOLVER       

       ELAPSED USER TIME (SEC)      =  1.00000E-02
       ELAPSED SYSTEM TIME (SEC)    =   0.0000    
       ELAPSED TOTAL CPU TIME (SEC) =  1.00000E-02
       ELAPSED WALLCLOCK TIME (SEC) =          0

               CONVERGENCE CHECKS FOR EQUILIBRIUM ITERATION     2


 AVERAGE FORCE                      0.213       TIME AVG. FORCE       5.429E-02
 LARGEST RESIDUAL FORCE            -2.396E-08   AT NODE          3   DOF  1
 LARGEST INCREMENT OF DISP.         3.037E-02   AT NODE          1   DOF  2
 LARGEST CORRECTION TO DISP.       -3.196E-07   AT NODE          3   DOF  1
          THE FORCE     EQUILIBRIUM EQUATIONS HAVE CONVERGED
          TIME INCREMENT MAY NOW INCREASE TO    7.594E-02

 ITERATION SUMMARY FOR THE INCREMENT:   2 TOTAL ITERATIONS, OF WHICH
   0 ARE SEVERE DISCONTINUITY ITERATIONS AND  2 ARE EQUILIBRIUM ITERATIONS.

 TIME INCREMENT COMPLETED  5.063E-02,  FRACTION OF STEP COMPLETED  0.142    
 STEP TIME COMPLETED       0.142    ,  TOTAL TIME COMPLETED        0.142    


  INCREMENT     7 STARTS. ATTEMPT NUMBER  1, TIME INCREMENT  7.594E-02

  NUMBER OF EQUATIONS =        24     NUMBER OF RHS =    1
  NUMBER OF FLOATING PT. OPERATIONS =  4.90E+03

     CHECK POINT   START OF SOLVER    

     CHECK POINT  END OF SOLVER       

       ELAPSED USER TIME (SEC)      =  1.00000E-02
       ELAPSED SYSTEM TIME (SEC)    =   0.0000    
       ELAPSED TOTAL CPU TIME (SEC) =  1.00000E-02
       ELAPSED WALLCLOCK TIME (SEC) =          0

               CONVERGENCE CHECKS FOR EQUILIBRIUM ITERATION     1


 AVERAGE FORCE                      0.105       TIME AVG. FORCE       6.152E-02
 LARGEST RESIDUAL FORCE             8.582E-04   AT NODE          7   DOF  3
 LARGEST INCREMENT OF DISP.         4.556E-02   AT NODE          1   DOF  2
 LARGEST CORRECTION TO DISP.       -1.045E-03   AT NODE          7   DOF  3
          FORCE     EQUILIBRIUM NOT ACHIEVED WITHIN TOLERANCE.

  NUMBER OF EQUATIONS =        24     NUMBER OF RHS =    1
  NUMBER OF FLOATING PT. OPERATIONS =  4.90E+03

     CHECK POINT   START OF SOLVER    

     CHECK POINT  END OF SOLVER       

       ELAPSED USER TIME (SEC)      =  1.00000E-02
       ELAPSED SYSTEM TIME (SEC)    =   0.0000    
       ELAPSED TOTAL CPU TIME (SEC) =  1.00000E-02
       ELAPSED WALLCLOCK TIME (SEC) =          0

               CONVERGENCE CHECKS FOR EQUILIBRIUM ITERATION     2


 AVERAGE FORCE                      0.312       TIME AVG. FORCE       9.116E-02
 LARGEST RESIDUAL FORCE             1.798E-07   AT NODE          4   DOF  3
 LARGEST INCREMENT OF DISP.         4.556E-02   AT NODE          1   DOF  2
 LARGEST CORRECTION TO DISP.        1.515E-06   AT NODE          7   DOF  3
          THE FORCE     EQUILIBRIUM EQUATIONS HAVE CONVERGED
          TIME INCREMENT MAY NOW INCREASE TO    0.100    

 ITERATION SUMMARY FOR THE INCREMENT:   2 TOTAL ITERATIONS, OF WHICH
   0 ARE SEVERE DISCONTINUITY ITERATIONS AND  2 ARE EQUILIBRIUM ITERATIONS.

 TIME INCREMENT COMPLETED  7.594E-02,  FRACTION OF STEP COMPLETED  0.218    
 STEP TIME COMPLETED       0.218    ,  TOTAL TIME COMPLETED        0.218    


  INCREMENT     8 STARTS. ATTEMPT NUMBER  1, TIME INCREMENT  0.100    

  NUMBER OF EQUATIONS =        24     NUMBER OF RHS =    1
  NUMBER OF FLOATING PT. OPERATIONS =  4.90E+03

     CHECK POINT   START OF SOLVER    

     CHECK POINT  END OF SOLVER       

       ELAPSED USER TIME (SEC)      =  1.00000E-02
       ELAPSED SYSTEM TIME (SEC)    =   0.0000    
       ELAPSED TOTAL CPU TIME (SEC) =  1.00000E-02
       ELAPSED WALLCLOCK TIME (SEC) =          0

               CONVERGENCE CHECKS FOR EQUILIBRIUM ITERATION     1


 AVERAGE FORCE                      0.146       TIME AVG. FORCE       9.799E-02
 LARGEST RESIDUAL FORCE             2.598E-03   AT NODE          8   DOF  3
 LARGEST INCREMENT OF DISP.         6.000E-02   AT NODE          1   DOF  2
 LARGEST CORRECTION TO DISP.       -1.731E-03   AT NODE          3   DOF  3
          FORCE     EQUILIBRIUM NOT ACHIEVED WITHIN TOLERANCE.

  NUMBER OF EQUATIONS =        24     NUMBER OF RHS =    1
  NUMBER OF FLOATING PT. OPERATIONS =  4.90E+03

     CHECK POINT   START OF SOLVER    

     CHECK POINT  END OF SOLVER       

       ELAPSED USER TIME (SEC)      =   0.0000    
       ELAPSED SYSTEM TIME (SEC)    =   0.0000    
       ELAPSED TOTAL CPU TIME (SEC) =   0.0000    
       ELAPSED WALLCLOCK TIME (SEC) =          0

               CONVERGENCE CHECKS FOR EQUILIBRIUM ITERATION     2


 AVERAGE FORCE                      0.430       TIME AVG. FORCE       0.134    
 LARGEST RESIDUAL FORCE            -7.843E-07   AT NODE          2   DOF  1
 LARGEST INCREMENT OF DISP.         6.000E-02   AT NODE          1   DOF  2
 LARGEST CORRECTION TO DISP.        4.353E-06   AT NODE          8   DOF  3
          THE FORCE     EQUILIBRIUM EQUATIONS HAVE CONVERGED

 ITERATION SUMMARY FOR THE INCREMENT:   2 TOTAL ITERATIONS, OF WHICH
   0 ARE SEVERE DISCONTINUITY ITERATIONS AND  2 ARE EQUILIBRIUM ITERATIONS.

 TIME INCREMENT COMPLETED  0.100    ,  FRACTION OF STEP COMPLETED  0.318    
 STEP TIME COMPLETED       0.318    ,  TOTAL TIME COMPLETED        0.318    


  INCREMENT     9 STARTS. ATTEMPT NUMBER  1, TIME INCREMENT  0.100    

  NUMBER OF EQUATIONS =        24     NUMBER OF RHS =    1
  NUMBER OF FLOATING PT. OPERATIONS =  4.90E+03

     CHECK POINT   START OF SOLVER    

     CHECK POINT  END OF SOLVER       

       ELAPSED USER TIME (SEC)      =   0.0000    
       ELAPSED SYSTEM TIME (SEC)    =   0.0000    
       ELAPSED TOTAL CPU TIME (SEC) =   0.0000    
       ELAPSED WALLCLOCK TIME (SEC) =          0

               CONVERGENCE CHECKS FOR EQUILIBRIUM ITERATION     1


 AVERAGE FORCE                      0.181       TIME AVG. FORCE       0.139    
 LARGEST RESIDUAL FORCE            -2.767E-03   AT NODE          2   DOF  1
 LARGEST INCREMENT OF DISP.         6.000E-02   AT NODE          1   DOF  2
 LARGEST CORRECTION TO DISP.        1.748E-03   AT NODE          2   DOF  1
          FORCE     EQUILIBRIUM NOT ACHIEVED WITHIN TOLERANCE.

  NUMBER OF EQUATIONS =        24     NUMBER OF RHS =    1
  NUMBER OF FLOATING PT. OPERATIONS =  4.90E+03

     CHECK POINT   START OF SOLVER    

     CHECK POINT  END OF SOLVER       

       ELAPSED USER TIME (SEC)      =   0.0000    
       ELAPSED SYSTEM TIME (SEC)    =   0.0000    
       ELAPSED TOTAL CPU TIME (SEC) =   0.0000    
       ELAPSED WALLCLOCK TIME (SEC) =          0

               CONVERGENCE CHECKS FOR EQUILIBRIUM ITERATION     2


 AVERAGE FORCE                      0.535       TIME AVG. FORCE       0.178    
 LARGEST RESIDUAL FORCE            -1.077E-06   AT NODE          3   DOF  1
 LARGEST INCREMENT OF DISP.         6.000E-02   AT NODE          1   DOF  2
 LARGEST CORRECTION TO DISP.       -4.412E-06   AT NODE          2   DOF  1
          THE FORCE     EQUILIBRIUM EQUATIONS HAVE CONVERGED

 ITERATION SUMMARY FOR THE INCREMENT:   2 TOTAL ITERATIONS, OF WHICH
   0 ARE SEVERE DISCONTINUITY ITERATIONS AND  2 ARE EQUILIBRIUM ITERATIONS.

 TIME INCREMENT COMPLETED  0.100    ,  FRACTION OF STEP COMPLETED  0.418    
 STEP TIME COMPLETED       0.418    ,  TOTAL TIME COMPLETED        0.418    


  INCREMENT    10 STARTS. ATTEMPT NUMBER  1, TIME INCREMENT  0.100    

  NUMBER OF EQUATIONS =        24     NUMBER OF RHS =    1
  NUMBER OF FLOATING PT. OPERATIONS =  4.90E+03

     CHECK POINT   START OF SOLVER    

     CHECK POINT  END OF SOLVER       

       ELAPSED USER TIME (SEC)      =   0.0000    
       ELAPSED SYSTEM TIME (SEC)    =   0.0000    
       ELAPSED TOTAL CPU TIME (SEC) =   0.0000    
       ELAPSED WALLCLOCK TIME (SEC) =          0

               CONVERGENCE CHECKS FOR EQUILIBRIUM ITERATION     1


 AVERAGE FORCE                      0.212       TIME AVG. FORCE       0.182    
 LARGEST RESIDUAL FORCE            -2.197E-03   AT NODE          1   DOF  1
 LARGEST INCREMENT OF DISP.         6.000E-02   AT NODE          1   DOF  2
 LARGEST CORRECTION TO DISP.        1.546E-03   AT NODE          1   DOF  1
          FORCE     EQUILIBRIUM NOT ACHIEVED WITHIN TOLERANCE.

  NUMBER OF EQUATIONS =        24     NUMBER OF RHS =    1
  NUMBER OF FLOATING PT. OPERATIONS =  4.90E+03

     CHECK POINT   START OF SOLVER    

     CHECK POINT  END OF SOLVER       

       ELAPSED USER TIME (SEC)      =   0.0000    
       ELAPSED SYSTEM TIME (SEC)    =   0.0000    
       ELAPSED TOTAL CPU TIME (SEC) =   0.0000    
       ELAPSED WALLCLOCK TIME (SEC) =          0

               CONVERGENCE CHECKS FOR EQUILIBRIUM ITERATION     2


 AVERAGE FORCE                      0.630       TIME AVG. FORCE       0.223    
 LARGEST RESIDUAL FORCE             1.042E-06   AT NODE          7   DOF  3
 LARGEST INCREMENT OF DISP.         6.000E-02   AT NODE          1   DOF  2
 LARGEST CORRECTION TO DISP.       -3.342E-06   AT NODE          1   DOF  1
          THE FORCE     EQUILIBRIUM EQUATIONS HAVE CONVERGED

 ITERATION SUMMARY FOR THE INCREMENT:   2 TOTAL ITERATIONS, OF WHICH
   0 ARE SEVERE DISCONTINUITY ITERATIONS AND  2 ARE EQUILIBRIUM ITERATIONS.

 TIME INCREMENT COMPLETED  0.100    ,  FRACTION OF STEP COMPLETED  0.518    
 STEP TIME COMPLETED       0.518    ,  TOTAL TIME COMPLETED        0.518    


  INCREMENT    11 STARTS. ATTEMPT NUMBER  1, TIME INCREMENT  0.100    

  NUMBER OF EQUATIONS =        24     NUMBER OF RHS =    1
  NUMBER OF FLOATING PT. OPERATIONS =  4.90E+03

     CHECK POINT   START OF SOLVER    

     CHECK POINT  END OF SOLVER       

       ELAPSED USER TIME (SEC)      =   0.0000    
       ELAPSED SYSTEM TIME (SEC)    =   0.0000    
       ELAPSED TOTAL CPU TIME (SEC) =   0.0000    
       ELAPSED WALLCLOCK TIME (SEC) =          0

               CONVERGENCE CHECKS FOR EQUILIBRIUM ITERATION     1


 AVERAGE FORCE                      0.240       TIME AVG. FORCE       0.225    
 LARGEST RESIDUAL FORCE             1.738E-03   AT NODE          8   DOF  3
 LARGEST INCREMENT OF DISP.         6.000E-02   AT NODE          1   DOF  2
 LARGEST CORRECTION TO DISP.        1.375E-03   AT NODE          4   DOF  1
          FORCE     EQUILIBRIUM NOT ACHIEVED WITHIN TOLERANCE.

  NUMBER OF EQUATIONS =        24     NUMBER OF RHS =    1
  NUMBER OF FLOATING PT. OPERATIONS =  4.90E+03

     CHECK POINT   START OF SOLVER    

     CHECK POINT  END OF SOLVER       

       ELAPSED USER TIME (SEC)      =   0.0000    
       ELAPSED SYSTEM TIME (SEC)    =   0.0000    
       ELAPSED TOTAL CPU TIME (SEC) =   0.0000    
       ELAPSED WALLCLOCK TIME (SEC) =          0

               CONVERGENCE CHECKS FOR EQUILIBRIUM ITERATION     2


 AVERAGE FORCE                      0.716       TIME AVG. FORCE       0.268    
 LARGEST RESIDUAL FORCE            -9.701E-07   AT NODE          4   DOF  1
 LARGEST INCREMENT OF DISP.         6.000E-02   AT NODE          1   DOF  2
 LARGEST CORRECTION TO DISP.        2.526E-06   AT NODE          8   DOF  3
          THE FORCE     EQUILIBRIUM EQUATIONS HAVE CONVERGED

 ITERATION SUMMARY FOR THE INCREMENT:   2 TOTAL ITERATIONS, OF WHICH
   0 ARE SEVERE DISCONTINUITY ITERATIONS AND  2 ARE EQUILIBRIUM ITERATIONS.

 TIME INCREMENT COMPLETED  0.100    ,  FRACTION OF STEP COMPLETED  0.618    
 STEP TIME COMPLETED       0.618    ,  TOTAL TIME COMPLETED        0.618    


  INCREMENT    12 STARTS. ATTEMPT NUMBER  1, TIME INCREMENT  0.100    

  NUMBER OF EQUATIONS =        24     NUMBER OF RHS =    1
  NUMBER OF FLOATING PT. OPERATIONS =  4.90E+03

     CHECK POINT   START OF SOLVER    

     CHECK POINT  END OF SOLVER       

       ELAPSED USER TIME (SEC)      =   0.0000    
       ELAPSED SYSTEM TIME (SEC)    =   0.0000    
       ELAPSED TOTAL CPU TIME (SEC) =   0.0000    
       ELAPSED WALLCLOCK TIME (SEC) =          0

               CONVERGENCE CHECKS FOR EQUILIBRIUM ITERATION     1


 AVERAGE FORCE                      0.266       TIME AVG. FORCE       0.268    
 LARGEST RESIDUAL FORCE            -1.365E-03   AT NODE          2   DOF  1
 LARGEST INCREMENT OF DISP.         6.000E-02   AT NODE          1   DOF  2
 LARGEST CORRECTION TO DISP.        1.229E-03   AT NODE          2   DOF  1
          FORCE     EQUILIBRIUM NOT ACHIEVED WITHIN TOLERANCE.

  NUMBER OF EQUATIONS =        24     NUMBER OF RHS =    1
  NUMBER OF FLOATING PT. OPERATIONS =  4.90E+03

     CHECK POINT   START OF SOLVER    

     CHECK POINT  END OF SOLVER       

       ELAPSED USER TIME (SEC)      =   0.0000    
       ELAPSED SYSTEM TIME (SEC)    =  1.00000E-02
       ELAPSED TOTAL CPU TIME (SEC) =  1.00000E-02
       ELAPSED WALLCLOCK TIME (SEC) =          0

               CONVERGENCE CHECKS FOR EQUILIBRIUM ITERATION     2


 AVERAGE FORCE                      0.795       TIME AVG. FORCE       0.312    
 LARGEST RESIDUAL FORCE            -8.750E-07   AT NODE          2   DOF  1
 LARGEST INCREMENT OF DISP.         6.000E-02   AT NODE          1   DOF  2
 LARGEST CORRECTION TO DISP.       -1.900E-06   AT NODE          2   DOF  1
          THE FORCE     EQUILIBRIUM EQUATIONS HAVE CONVERGED

 ITERATION SUMMARY FOR THE INCREMENT:   2 TOTAL ITERATIONS, OF WHICH
   0 ARE SEVERE DISCONTINUITY ITERATIONS AND  2 ARE EQUILIBRIUM ITERATIONS.

 TIME INCREMENT COMPLETED  0.100    ,  FRACTION OF STEP COMPLETED  0.718    
 STEP TIME COMPLETED       0.718    ,  TOTAL TIME COMPLETED        0.718    


  INCREMENT    13 STARTS. ATTEMPT NUMBER  1, TIME INCREMENT  0.100    

  NUMBER OF EQUATIONS =        24     NUMBER OF RHS =    1
  NUMBER OF FLOATING PT. OPERATIONS =  4.90E+03

     CHECK POINT   START OF SOLVER    

     CHECK POINT  END OF SOLVER       

       ELAPSED USER TIME (SEC)      =  1.00000E-02
       ELAPSED SYSTEM TIME (SEC)    =   0.0000    
       ELAPSED TOTAL CPU TIME (SEC) =  1.00000E-02
       ELAPSED WALLCLOCK TIME (SEC) =          0

               CONVERGENCE CHECKS FOR EQUILIBRIUM ITERATION     1


 AVERAGE FORCE                      0.290       TIME AVG. FORCE       0.310    
 LARGEST RESIDUAL FORCE             1.059E-03   AT NODE          8   DOF  3
 LARGEST INCREMENT OF DISP.         6.000E-02   AT NODE          1   DOF  2
 LARGEST CORRECTION TO DISP.       -1.104E-03   AT NODE          3   DOF  3
 ESTIMATE OF DISP.    CORRECTION    1.418E-06
 FORCE     EQUILIB. ACCEPTED BASED ON SMALL RESIDUAL AND ESTIMATED CORRECTION

 ITERATION SUMMARY FOR THE INCREMENT:   1 TOTAL ITERATIONS, OF WHICH
   0 ARE SEVERE DISCONTINUITY ITERATIONS AND  1 ARE EQUILIBRIUM ITERATIONS.

 TIME INCREMENT COMPLETED  0.100    ,  FRACTION OF STEP COMPLETED  0.818    
 STEP TIME COMPLETED       0.818    ,  TOTAL TIME COMPLETED        0.818    


  INCREMENT    14 STARTS. ATTEMPT NUMBER  1, TIME INCREMENT  0.100    

  NUMBER OF EQUATIONS =        24     NUMBER OF RHS =    1
  NUMBER OF FLOATING PT. OPERATIONS =  4.90E+03

     CHECK POINT   START OF SOLVER    

     CHECK POINT  END OF SOLVER       

       ELAPSED USER TIME (SEC)      =  1.00000E-02
       ELAPSED SYSTEM TIME (SEC)    =   0.0000    
       ELAPSED TOTAL CPU TIME (SEC) =  1.00000E-02
       ELAPSED WALLCLOCK TIME (SEC) =          0

               CONVERGENCE CHECKS FOR EQUILIBRIUM ITERATION     1


 AVERAGE FORCE                      0.312       TIME AVG. FORCE       0.310    
 LARGEST RESIDUAL FORCE             8.007E-04   AT NODE          7   DOF  3
 LARGEST INCREMENT OF DISP.         6.000E-02   AT NODE          1   DOF  2
 LARGEST CORRECTION TO DISP.       -9.930E-04   AT NODE          7   DOF  3
 ESTIMATE OF DISP.    CORRECTION   -1.030E-06
 FORCE     EQUILIB. ACCEPTED BASED ON SMALL RESIDUAL AND ESTIMATED CORRECTION

 ITERATION SUMMARY FOR THE INCREMENT:   1 TOTAL ITERATIONS, OF WHICH
   0 ARE SEVERE DISCONTINUITY ITERATIONS AND  1 ARE EQUILIBRIUM ITERATIONS.

 TIME INCREMENT COMPLETED  0.100    ,  FRACTION OF STEP COMPLETED  0.918    
 STEP TIME COMPLETED       0.918    ,  TOTAL TIME COMPLETED        0.918    


  INCREMENT    15 STARTS. ATTEMPT NUMBER  1, TIME INCREMENT  8.219E-02

  NUMBER OF EQUATIONS =        24     NUMBER OF RHS =    1
  NUMBER OF FLOATING PT. OPERATIONS =  4.90E+03

     CHECK POINT   START OF SOLVER    

     CHECK POINT  END OF SOLVER       

       ELAPSED USER TIME (SEC)      =  1.00000E-02
       ELAPSED SYSTEM TIME (SEC)    =   0.0000    
       ELAPSED TOTAL CPU TIME (SEC) =  1.00000E-02
       ELAPSED WALLCLOCK TIME (SEC) =          0

               CONVERGENCE CHECKS FOR EQUILIBRIUM ITERATION     1


 AVERAGE FORCE                      0.329       TIME AVG. FORCE       0.312    
 LARGEST RESIDUAL FORCE             2.206E-04   AT NODE          8   DOF  3
 LARGEST INCREMENT OF DISP.         4.931E-02   AT NODE          1   DOF  2
 LARGEST CORRECTION TO DISP.       -6.772E-04   AT NODE          8   DOF  3
 ESTIMATE OF DISP.    CORRECTION   -2.747E-07
 FORCE     EQUILIB. ACCEPTED BASED ON SMALL RESIDUAL AND ESTIMATED CORRECTION

 ITERATION SUMMARY FOR THE INCREMENT:   1 TOTAL ITERATIONS, OF WHICH
   0 ARE SEVERE DISCONTINUITY ITERATIONS AND  1 ARE EQUILIBRIUM ITERATIONS.

 TIME INCREMENT COMPLETED  8.219E-02,  FRACTION OF STEP COMPLETED   1.00    
 STEP TIME COMPLETED        1.00    ,  TOTAL TIME COMPLETED         1.00    


          THE ANALYSIS HAS BEEN COMPLETED



     ANALYSIS SUMMARY:
     TOTAL OF         15  INCREMENTS
                       0  CUTBACKS IN AUTOMATIC INCREMENTATION
                      23  ITERATIONS INCLUDING CONTACT ITERATIONS IF PRESENT
                      23  PASSES THROUGH THE EQUATION SOLVER OF WHICH 
                      23  INVOLVE MATRIX DECOMPOSITION, INCLUDING
                       0  DECOMPOSITION(S) OF THE MASS MATRIX
                       1  REORDERING OF EQUATIONS TO MINIMIZE WAVEFRONT
                       0  ADDITIONAL RESIDUAL EVALUATIONS FOR LINE SEARCHES
                       0  ADDITIONAL OPERATOR EVALUATIONS FOR LINE SEARCHES
                       0  WARNING MESSAGES DURING USER INPUT PROCESSING
                       0  WARNING MESSAGES DURING ANALYSIS
                       0  ANALYSIS WARNINGS ARE NUMERICAL PROBLEM MESSAGES
                       0  ANALYSIS WARNINGS ARE NEGATIVE EIGENVALUE MESSAGES
                       0  ERROR MESSAGES



     JOB TIME SUMMARY
       USER TIME (SEC)      =  0.57000    
       SYSTEM TIME (SEC)    =  0.21000    
       TOTAL CPU TIME (SEC) =  0.78000    
       WALLCLOCK TIME (SEC) =          1
